
#======================================================================
# CRYSTAL DATA
#----------------------------------------------------------------------
data_VESTA_phase_1

_chemical_name_common                  'New structure'
_cell_length_a                         17.599998
_cell_length_b                         6.665000
_cell_length_c                         11.446000
_cell_angle_alpha                      90.269997
_cell_angle_beta                       90.000000
_cell_angle_gamma                      89.970001
_cell_volume                           1342.646380
_space_group_name_H-M_alt              'P -1'
_space_group_IT_number                 2

loop_
_space_group_symop_operation_xyz
   'x, y, z'
   '-x, -y, -z'

loop_
   _atom_site_label
   _atom_site_occupancy
   _atom_site_fract_x
   _atom_site_fract_y
   _atom_site_fract_z
   _atom_site_adp_type
   _atom_site_U_iso_or_equiv
   _atom_site_type_symbol
   Al72       1.0     0.500000     0.000000     0.500000    Uiso  0.050000 Al
   Al73       1.0     1.000000     0.500000     0.000000    Uiso  0.050000 Al
   Al74       1.0     0.500000     0.500000     0.500000    Uiso  0.050000 Al
   Al75       1.0     1.0(15)      0.0(15)      0.0(15)     Uiso  0.050000 Al
   O1         1.0     0.6(15)      0.1(15)      0.4(15)     Uiso  0.050000 O
   O4         1.0     0.9(15)      0.4(15)      0.1(15)     Uiso  0.050000 O
   O6         1.0     0.4(15)      0.4(15)      0.4(15)     Uiso  0.050000 O
   O7         1.0     0.1(15)      0.1(15)      0.1(15)     Uiso  0.050000 O
   O9         1.0     0.6(15)      0.4(15)      0.4(15)     Uiso  0.050000 O
   O12        1.0     0.9(15)      0.1(15)      0.1(15)     Uiso  0.050000 O
   O14        1.0     0.4(15)      0.1(15)      0.4(15)     Uiso  0.050000 O
   O15        1.0     0.1(15)      0.4(15)      0.1(15)     Uiso  0.050000 O
   O17        1.0     0.5(15)      0.3(15)      0.6(15)     Uiso  0.050000 O
   O18        1.0     1.0(15)      0.8(15)      0.1(15)     Uiso  0.050000 O
   N27        1.0     0.2(15)      0.6(15)      0.2(15)     Uiso  0.050000 N
   N30        1.0     0.7(15)      0.6(15)      0.3(15)     Uiso  0.050000 N
   N33        1.0     0.5(15)      0.5(15)      0.1(15)     Uiso  0.050000 N
   N37        1.0     0.1(15)      0.7(15)      0.4(15)     Uiso  0.050000 N
   C2         1.0     0.7(15)      0.1(15)      0.3(15)     Uiso  0.050000 C
   C3         1.0     0.8(15)      0.4(15)      0.2(15)     Uiso  0.050000 C
   C5         1.0     0.3(15)      0.4(15)      0.3(15)     Uiso  0.050000 C
   C8         1.0     0.2(15)      0.1(15)      0.2(15)     Uiso  0.050000 C
   C10        1.0     0.7(15)      0.4(15)      0.3(15)     Uiso  0.050000 C
   C11        1.0     0.8(15)      0.1(15)      0.2(15)     Uiso  0.050000 C
   C13        1.0     0.3(15)      0.1(15)      0.3(15)     Uiso  0.050000 C
   C16        1.0     0.2(15)      0.4(15)      0.2(15)     Uiso  0.050000 C
   C19        1.0     0.6(15)      0.3(15)      0.4(15)     Uiso  0.050000 C
   C20        1.0     0.7(15)      0.3(15)      0.3(15)     Uiso  0.050000 C
   C21        1.0     0.9(15)      0.3(15)      0.1(15)     Uiso  0.050000 C
   C22        1.0     0.8(15)      0.3(15)      0.2(15)     Uiso  0.050000 C
   C23        1.0     0.4(15)      0.3(15)      0.4(15)     Uiso  0.050000 C
   C24        1.0     0.3(15)      0.3(15)      0.3(15)     Uiso  0.050000 C
   C25        1.0     0.1(15)      0.3(15)      0.1(15)     Uiso  0.050000 C
   C26        1.0     0.2(15)      0.3(15)      0.2(15)     Uiso  0.050000 C
   C28        1.0     0.1(15)      0.7(15)      0.2(15)     Uiso  0.050000 C
   C29        1.0     0.6(15)      0.7(15)      0.2(15)     Uiso  0.050000 C
   C31        1.0     0.6(15)      0.7(15)      0.2(15)     Uiso  0.050000 C
   C32        1.0     0.5(15)      0.8(15)      0.2(15)     Uiso  0.050000 C
   C34        1.0     0.4(15)      0.6(15)      0.1(15)     Uiso  0.050000 C
   C35        1.0     0.4(15)      0.5(15)      0.1(15)     Uiso  0.050000 C
   C36        1.0     0.4(15)      0.8(15)      0.2(15)     Uiso  0.050000 C
   C39        1.0     0.1(15)      0.7(15)      0.6(15)     Uiso  0.050000 C
   C38        1.0     0.1(15)      0.7(15)      0.4(15)     Uiso  0.050000 C
   C39        1.0     0.1(15)      0.7(15)      0.6(15)     Uiso  0.050000 C
   C40        1.0     0.2(15)      0.6(15)      0.5(15)     Uiso  0.050000 C
   C41        1.0     0.1(15)      0.7(15)      0.6(15)     Uiso  0.050000 C
   C42        1.0     0.2(15)      0.7(15)      0.4(15)     Uiso  0.050000 C
   C43        1.0     0.1(15)      0.2(15)      0.7(15)     Uiso  0.050000 C
   C44        1.0     0.0(15)      0.1(15)      0.6(15)     Uiso  0.050000 C
   C45        1.0     0.4(15)      0.2(15)      0.2(15)     Uiso  0.050000 C
   H46        1.0     0.7(15)     -0.1(15)      0.3(15)     Uiso  0.050000 H
   H47        1.0     0.8(15)      0.6(15)      0.2(15)     Uiso  0.050000 H
   H48        1.0     0.3(15)      0.6(15)      0.3(15)     Uiso  0.050000 H
   H49        1.0     0.2(15)     -0.1(15)      0.2(15)     Uiso  0.050000 H
   H50        1.0     0.8(15)     -0.1(15)      0.2(15)     Uiso  0.050000 H
   H51        1.0     0.3(15)     -0.1(15)      0.0(15)     Uiso  0.050000 H
   H52        1.0     0.2(15)      0.7(15)      0.1(15)     Uiso  0.050000 H
   H53        1.0     0.1(15)      0.6(15)      0.2(15)     Uiso  0.050000 H
   H54        1.0     0.1(15)      0.9(15)      0.2(15)     Uiso  0.050000 H
   H55        1.0     0.7(15)      0.7(15)      0.1(15)     Uiso  0.050000 H
   H56        1.0     0.6(15)      0.9(15)      0.2(15)     Uiso  0.050000 H
   H57        1.0     0.7(15)      0.7(15)      0.4(15)     Uiso  0.050000 H
   H58        1.0     0.5(15)      1.0(15)      0.2(15)     Uiso  0.050000 H
   H59        1.0     0.3(15)      0.6(15)      0.1(15)     Uiso  0.050000 H
   H60        1.0     0.4(15)      0.3(15)      0.1(15)     Uiso  0.050000 H
   H61        1.0     0.4(15)      1.0(15)      0.2(15)     Uiso  0.050000 H
   H62        1.0     0.0(15)      0.7(15)      0.6(15)     Uiso  0.050000 H
   H63        1.0     0.3(15)      0.6(15)      0.6(15)     Uiso  0.050000 H
   H64        1.0     0.2(15)      0.6(15)      0.7(15)     Uiso  0.050000 H
   H65        1.0     0.2(15)      0.6(15)      0.4(15)     Uiso  0.050000 H
   H66        1.0     0.1(15)      0.3(15)      0.7(15)     Uiso  0.050000 H
   H67        1.0     0.2(15)      0.2(15)      0.7(15)     Uiso  0.050000 H
   H68        1.0     0.0(15)     -0.0(15)      0.5(15)     Uiso  0.050000 H
   H69        1.0    -0.0(15)      0.1(15)      0.1(15)     Uiso  0.050000 H
   H70        1.0     0.4(15)      0.0(15)      0.1(15)     Uiso  0.050000 H
   H71        1.0     0.3(15)      0.2(15)      0.2(15)     Uiso  0.050000 H
