####################################################################### 
# 
# This file contains crystal structure data downloaded from the 
# Cambridge Structural Database (CSD) hosted by the Cambridge 
# Crystallographic Data Centre (CCDC).
# 
# Full information about CCDC data access policies and citation 
# guidelines are available at http://www.ccdc.cam.ac.uk/access/V1 
# 
# Audit and citation data items may have been added by the CCDC. 
# Please retain this information to preserve the provenance of 
# this file and to allow appropriate attribution of the data. 
# 
#######################################################################

data_Ti265w
_audit_block_doi                 10.5517/cct6mwh
_database_code_depnum_ccdc_archive 'CCDC 751157'
loop_
_citation_id
_citation_doi
_citation_year
1 10.1021/ja903726m 2009
_audit_update_record             
;
2009-10-14 deposited with the CCDC.	2023-06-17 downloaded from the CCDC.
;
_audit_creation_method           'Created with Diamond v2.0'
_audit_creation_date             07-12-10
_chemical_formula_sum            'Ti16 O166.299 C96'
_chemical_formula_weight         4579.823
_cell_length_a                   18.6543(10)
_cell_length_b                   18.6543(10)
_cell_length_c                   18.1444(10)
_cell_angle_alpha                90.000
_cell_angle_beta                 90.000
_cell_angle_gamma                90.000
_cell_volume                     6313.9(6)
_symmetry_int_tables_number      139
_symmetry_space_group_name_H-M   'I 4/m m m'
_symmetry_space_group_name_Hall  -I_4_2

loop_
_atom_type_symbol
_atom_type_oxidation_number
_atom_type_radius_bond
Ti ? 1.200
O ? 0.900
C ? 0.700


loop_
_atom_site_label
_atom_site_type_symbol
_atom_site_fract_x
_atom_site_fract_y
_atom_site_fract_z
_atom_site_occupancy
_atom_site_symmetry_multiplicity
_atom_site_Wyckoff_symbol
_atom_site_attached_hydrogens
_atom_site_calc_flag
_atom_site_thermal_displace_type
_atom_site_u_iso_or_equiv
Ti Ti 0.2083 0.0740 0.5000 1.000 16 l ? d Uiso 0.00000
O1 O 0.3111 0.0580 0.5000 1.000 16 l ? d Uiso 0.00000
O2 O 0.1819 0.0000 0.4265 1.000 16 n ? d Uiso 0.00000
O3 O 0.2259 0.1442 0.4268 1.000 32 o ? d Uiso 0.00000
O4 O 0.1074 0.1074 0.5000 1.000 8 h ? d Uiso 0.00000
C1 C 0.3507 0.0000 0.5000 1.000 8 j ? d Uiso 0.00000
C2 C 0.4265 0.0000 0.5000 1.000 8 j ? d Uiso 0.00000
C3 C 0.4632 0.0705 0.5000 1.000 16 l ? d Uiso 0.00000
C4 C 0.1940 0.1940 0.4023 1.000 16 m ? d Uiso 0.00000
C5 C 0.2225 0.2225 0.3209 1.000 16 m ? d Uiso 0.00000
C6 C 0.2015 0.2876 0.2898 1.000 32 o ? d Uiso 0.00000

