
#======================================================================
# CRYSTAL DATA
#----------------------------------------------------------------------
data_VESTA_phase_1

_chemical_name_common                  '68-ln-al'
_cell_length_a                         21.732500
_cell_length_b                         37.610199
_cell_length_c                         7.224900
_cell_angle_alpha                      90.000000
_cell_angle_beta                       90.000000
_cell_angle_gamma                      90.000000
_cell_volume                           5905.370461
_space_group_name_H-M_alt              'C m c m'
_space_group_IT_number                 63

loop_
_space_group_symop_operation_xyz
   'x, y, z'
   '-x, -y, -z'
   '-x, -y, z+1/2'
   'x, y, -z+1/2'
   '-x, y, -z+1/2'
   'x, -y, z+1/2'
   'x, -y, -z'
   '-x, y, z'
   'x+1/2, y+1/2, z'
   '-x+1/2, -y+1/2, -z'
   '-x+1/2, -y+1/2, z+1/2'
   'x+1/2, y+1/2, -z+1/2'
   '-x+1/2, y+1/2, -z+1/2'
   'x+1/2, -y+1/2, z+1/2'
   'x+1/2, -y+1/2, -z'
   '-x+1/2, y+1/2, z'

loop_
   _atom_site_label
   _atom_site_occupancy
   _atom_site_fract_x
   _atom_site_fract_y
   _atom_site_fract_z
   _atom_site_adp_type
   _atom_site_U_iso_or_equiv
   _atom_site_type_symbol
   O2         1.0     0.169070     0.257990     0.588750    Uani  0.040333 O
   O3         1.0     0.223100     0.205020     0.411270    Uani  0.055000 O
   O4         1.0     0.057960     0.034050     0.412240    Uani  0.063000 O
   N1A        0.2500  0.116980     0.087700     0.566770    Uiso  0.108000 N
   N1B        0.2500  0.174460     0.147950     0.566690    Uiso  0.079000 N
   N2         0.2500  0.059500     0.260560     0.433240    Uiso  0.072000 N
   C3         0.5000  0.029870     0.243450     0.584050    Uani  0.027000 C
   C6A        0.3400  0.134150     0.141190     0.416050    Uani  0.034667 C
   C7A        0.3400  0.105420     0.110910     0.415660    Uani  0.035667 C
   C3A        0.5000  0.029920     0.277910     0.583330    Uani  0.027000 C
   C6         0.6600  0.186460     0.124630     0.416480    Uani  0.038333 C
   C7         0.6600  0.157620     0.094290     0.416900    Uani  0.031667 C
   Al1        1.0     0.250000     0.250000     0.500000    Uani  0.017733 Al
   Al2        1.0     0.000000     0.000000     0.500000    Uani  0.020900 Al
   O1         1.0     0.236060     0.263550     0.250000    Uani  0.037667 O
   C4         1.0     0.210690     0.189280     0.250000    Uani  0.032333 C
   C5         1.0     0.176430     0.149740     0.250000    Uani  0.041667 C
   C8         1.0     0.115780     0.085620     0.250000    Uani  0.050000 C
   C9         1.0     0.075270     0.048100     0.250000    Uani  0.056667 C
   O5         1.0     0.000000     0.015290     0.750000    Uani  0.040667 O
   C1         1.0     0.139320     0.259240     0.750000    Uani  0.037333 C
   C2         1.0     0.063120     0.260800     0.750000    Uani  0.039667 C

loop_
   _atom_site_aniso_label
   _atom_site_aniso_U_11
   _atom_site_aniso_U_22
   _atom_site_aniso_U_33
   _atom_site_aniso_U_12
   _atom_site_aniso_U_13
   _atom_site_aniso_U_23
   O2	 0.02400  0.06600  0.03100  0.00600  0.01200 -0.00200
   O3	 0.09300  0.05100  0.02100 -0.02600 -0.00900  0.00500
   O4	 0.10900  0.06600  0.01400 -0.06100  0.00900 -0.00100
   C3	 0.02000  0.04400  0.01700  0.00700  0.00100  0.00100
   C6A	 0.02800  0.04100  0.03500 -0.01000 -0.00500  0.00600
   C7A	 0.03500  0.03900  0.03300 -0.01700 -0.00100  0.01100
   C3A	 0.02000  0.04400  0.01700  0.00700  0.00100  0.00100
   C6	 0.05700  0.04100  0.01700 -0.02500 -0.00100  0.00400
   C7	 0.04700  0.03800  0.01000 -0.01300 -0.00500  0.00100
   Al1	 0.01180  0.03480  0.00660 -0.00620  0.00100 -0.00070
   Al2	 0.03900  0.01570  0.00800  0.00000  0.00000  0.00010
   O1	 0.05300  0.05100  0.00900 -0.00600  0.00000  0.00000
   C4	 0.04800  0.02800  0.02100 -0.01700  0.00000  0.00000
   C5	 0.06700  0.03700  0.02100 -0.02900  0.00000  0.00000
   C8	 0.09500  0.04000  0.01500 -0.04900  0.00000  0.00000
   C9	 0.10300  0.04600  0.02100 -0.05000  0.00000  0.00000
   O5	 0.07000  0.04000  0.01200  0.00000  0.00000  0.00000
   C1	 0.03000  0.06500  0.01700  0.00000  0.00000  0.00000
   C2	 0.02500  0.05800  0.03600 -0.00500  0.00000  0.00000
